omf/scratch/OpenDssDemo/ieee37_ours.dss
Clear

! Note that this is a 3-wire delta system. 
! Node voltages in OpenDSS are normally line-ground and may give strange-looking results
! Be careful if you put line-neutral connected loads or other devices on this circuit.

New object=circuit.ieee37
~ basekv=230 pu=1.00 MVAsc3=200000 MVAsc1=210000

! Substation Transformer
New object=Transformer.SubXF Phases=3 Windings=2 Xhl=8
~ wdg=1 bus=sourcebus conn=Delta kv=230   kva=2500   %r=1
~ wdg=2 bus=799       conn=Delta kv=4.8   kva=2500   %r=1

! Load Transformer
New object=Transformer.XFM1  Phases=3 Windings=2 Xhl=1.81
~ wdg=1 bus=709       conn=Delta kv=4.80  kva=500    %r=0.045
~ wdg=2 bus=775       conn=Delta kv=0.48  kva=500    %r=0.045

! import line codes with phase impedance matrices
! Redirect        IEEELineCodes.dss
! These are for the 37-node test feeder, all underground
New object=linecode.721 nphases=3 BaseFreq=60
~ rmatrix=[0.055416667|0.012746212,0.050113636|0.006382576,0.012746212,0.055416667]
~ xmatrix=[0.037367424|-0.006969697,0.035984848|-0.007897727,-0.006969697,0.037367424]
~ cmatrix=[80.27484728|0,80.27484728|0,0,80.27484728]
New object=linecode.722 nphases=3 BaseFreq=60
~ rmatrix=[0.089981061|0.030852273,0.085|0.023371212,0.030852273,0.089981061]
~ xmatrix=[0.056306818|-0.006174242,0.050719697|-0.011496212,-0.006174242,0.056306818]
~ cmatrix=[64.2184109|0,64.2184109|0,0,64.2184109]
New object=linecode.723 nphases=3 BaseFreq=60
~ rmatrix=[0.245|0.092253788,0.246628788|0.086837121,0.092253788,0.245]
~ xmatrix=[0.127140152|0.039981061,0.119810606|0.028806818,0.039981061,0.127140152]
~ cmatrix=[37.5977112|0,37.5977112|0,0,37.5977112]
New object=linecode.724 nphases=3 BaseFreq=60
~ rmatrix=[0.396818182|0.098560606,0.399015152|0.093295455,0.098560606,0.396818182]
~ xmatrix=[0.146931818|0.051856061,0.140113636|0.040208333,0.051856061,0.146931818]
~ cmatrix=[30.26701029|0,30.26701029|0,0,30.26701029]

! Lines
New object=Line.L1     Phases=3 Bus1=701.1.2.3  Bus2=702.1.2.3  LineCode=722  Length=0.96
New object=Line.L2     Phases=3 Bus1=702.1.2.3  Bus2=705.1.2.3  LineCode=724  Length=0.4
New object=Line.L3     Phases=3 Bus1=702.1.2.3  Bus2=713.1.2.3  LineCode=723  Length=0.36
New object=Line.L4     Phases=3 Bus1=702.1.2.3  Bus2=703.1.2.3  LineCode=722  Length=1.32
New object=Line.L5     Phases=3 Bus1=703.1.2.3  Bus2=727.1.2.3  LineCode=724  Length=0.24
New object=Line.L6     Phases=3 Bus1=703.1.2.3  Bus2=730.1.2.3  LineCode=723  Length=0.6
New object=Line.L7     Phases=3 Bus1=704.1.2.3  Bus2=714.1.2.3  LineCode=724  Length=0.08
New object=Line.L8     Phases=3 Bus1=704.1.2.3  Bus2=720.1.2.3  LineCode=723  Length=0.8
New object=Line.L9     Phases=3 Bus1=705.1.2.3  Bus2=742.1.2.3  LineCode=724  Length=0.32
New object=Line.L10    Phases=3 Bus1=705.1.2.3  Bus2=712.1.2.3  LineCode=724  Length=0.24
New object=Line.L11    Phases=3 Bus1=706.1.2.3  Bus2=725.1.2.3  LineCode=724  Length=0.28
New object=Line.L12    Phases=3 Bus1=707.1.2.3  Bus2=724.1.2.3  LineCode=724  Length=0.76
New object=Line.L13    Phases=3 Bus1=707.1.2.3  Bus2=722.1.2.3  LineCode=724  Length=0.12
New object=Line.L14    Phases=3 Bus1=708.1.2.3  Bus2=733.1.2.3  LineCode=723  Length=0.32
New object=Line.L15    Phases=3 Bus1=708.1.2.3  Bus2=732.1.2.3  LineCode=724  Length=0.32
New object=Line.L16    Phases=3 Bus1=709.1.2.3  Bus2=731.1.2.3  LineCode=723  Length=0.6
New object=Line.L17    Phases=3 Bus1=709.1.2.3  Bus2=708.1.2.3  LineCode=723  Length=0.32
New object=Line.L18    Phases=3 Bus1=710.1.2.3  Bus2=735.1.2.3  LineCode=724  Length=0.2
New object=Line.L19    Phases=3 Bus1=710.1.2.3  Bus2=736.1.2.3  LineCode=724  Length=1.28
New object=Line.L20    Phases=3 Bus1=711.1.2.3  Bus2=741.1.2.3  LineCode=723  Length=0.4
New object=Line.L21    Phases=3 Bus1=711.1.2.3  Bus2=740.1.2.3  LineCode=724  Length=0.2
New object=Line.L22    Phases=3 Bus1=713.1.2.3  Bus2=704.1.2.3  LineCode=723  Length=0.52
New object=Line.L23    Phases=3 Bus1=714.1.2.3  Bus2=718.1.2.3  LineCode=724  Length=0.52
New object=Line.L24    Phases=3 Bus1=720.1.2.3  Bus2=707.1.2.3  LineCode=724  Length=0.92
New object=Line.L25    Phases=3 Bus1=720.1.2.3  Bus2=706.1.2.3  LineCode=723  Length=0.6
New object=Line.L26    Phases=3 Bus1=727.1.2.3  Bus2=744.1.2.3  LineCode=723  Length=0.28
New object=Line.L27    Phases=3 Bus1=730.1.2.3  Bus2=709.1.2.3  LineCode=723  Length=0.2
New object=Line.L28    Phases=3 Bus1=733.1.2.3  Bus2=734.1.2.3  LineCode=723  Length=0.56
New object=Line.L29    Phases=3 Bus1=734.1.2.3  Bus2=737.1.2.3  LineCode=723  Length=0.64
New object=Line.L30    Phases=3 Bus1=734.1.2.3  Bus2=710.1.2.3  LineCode=724  Length=0.52
New object=Line.L31    Phases=3 Bus1=737.1.2.3  Bus2=738.1.2.3  LineCode=723  Length=0.4
New object=Line.L32    Phases=3 Bus1=738.1.2.3  Bus2=711.1.2.3  LineCode=723  Length=0.4
New object=Line.L33    Phases=3 Bus1=744.1.2.3  Bus2=728.1.2.3  LineCode=724  Length=0.2
New object=Line.L34    Phases=3 Bus1=744.1.2.3  Bus2=729.1.2.3  LineCode=724  Length=0.28
New object=Line.L35    Phases=3 Bus1=799r.1.2.3 Bus2=701.1.2.3  LineCode=721  Length=1.85

! Regulator - open delta with C leading, A lagging, base LDC setting is 1.5 + j3
new object=transformer.reg1a phases=1 windings=2 bank=reg1 buses=(799.1.2,799r.1.2) conns='delta,delta' kvs="4.8,4.8" kvas="2000,2000" XHL=1
new object=regcontrol.creg1a transformer=reg1a winding=2 vreg=122 band=2 ptratio=40 ctprim=350 R=-0.201 X=3.348
new object=transformer.reg1c like=reg1a bank=reg1 buses=(799.3.2,799r.3.2)
new object=regcontrol.creg1c like=creg1a transformer=reg1c R=2.799 X=1.848
New object=Line.Jumper Phases=1 Bus1=799.2 Bus2=799r.2 r0=1e-3 r1=1e-3 x0=0 x1=0 c0=0 c1=0

! spot loads
New object=Load.S701a      Bus1=701.1.2 Phases=1 Conn=Delta Model=1 kV=4.800 kW=140.0	kVAR=70.0
New object=Load.S701b      Bus1=701.2.3 Phases=1 Conn=Delta Model=1 kV=4.800 kW=140.0	kVAR=70.0
New object=Load.S701c      Bus1=701.3.1 Phases=1 Conn=Delta Model=1 kV=4.800 kW=350.0	kVAR=175.0
New object=Load.S712c      Bus1=712.3.1 Phases=1 Conn=Delta Model=1 kV=4.800 kW=85.0	kVAR=40.0
New object=Load.S713c      Bus1=713.3.1 Phases=1 Conn=Delta Model=1 kV=4.800 kW=85.0	kVAR=40.0
New object=Load.S714a      Bus1=714.1.2 Phases=1 Conn=Delta Model=4 kV=4.800 kW=17.0	kVAR=8.0
New object=Load.S714b      Bus1=714.2.3 Phases=1 Conn=Delta Model=4 kV=4.800 kW=21.0	kVAR=10.0
New object=Load.S718a      Bus1=718.1.2 Phases=1 Conn=Delta Model=2 kV=4.800 kW=85.0	kVAR=40.0
New object=Load.S720c      Bus1=720.3.1 Phases=1 Conn=Delta Model=1 kV=4.800 kW=85.0	kVAR=40.0
New object=Load.S722b      Bus1=722.2.3 Phases=1 Conn=Delta Model=4 kV=4.800 kW=140.0	kVAR=70.0
New object=Load.S722c      Bus1=722.3.1 Phases=1 Conn=Delta Model=4 kV=4.800 kW=21.0	kVAR=10.0
New object=Load.S724b      Bus1=724.2.3 Phases=1 Conn=Delta Model=2 kV=4.800 kW=42.0	kVAR=21.0
New object=Load.S725b      Bus1=725.2.3 Phases=1 Conn=Delta Model=1 kV=4.800 kW=42.0	kVAR=21.0
New object=Load.S727c      Bus1=727.3.1 Phases=1 Conn=Delta Model=1 kV=4.800 kW=42.0	kVAR=21.0
New object=Load.S728       Bus1=728     Phases=3 Conn=Delta Model=1 kV=4.800 kW=126.0	kVAR=63.0
New object=Load.S729a      Bus1=729.1.2 Phases=1 Conn=Delta Model=4 kV=4.800 kW=42.0	kVAR=21.0
New object=Load.S730c      Bus1=730.3.1 Phases=1 Conn=Delta Model=2 kV=4.800 kW=85.0	kVAR=40.0
New object=Load.S731b      Bus1=731.2.3 Phases=1 Conn=Delta Model=2 kV=4.800 kW=85.0	kVAR=40.0
New object=Load.S732c      Bus1=732.3.1 Phases=1 Conn=Delta Model=1 kV=4.800 kW=42.0	kVAR=21.0
New object=Load.S733a      Bus1=733.1.2 Phases=1 Conn=Delta Model=4 kV=4.800 kW=85.0	kVAR=40.0
New object=Load.S734c      Bus1=734.3.1 Phases=1 Conn=Delta Model=1 kV=4.800 kW=42.0	kVAR=21.0
New object=Load.S735c      Bus1=735.3.1 Phases=1 Conn=Delta Model=1 kV=4.800 kW=85.0	kVAR=40.0
New object=Load.S736b      Bus1=736.2.3 Phases=1 Conn=Delta Model=2 kV=4.800 kW=42.0	kVAR=21.0
New object=Load.S737a      Bus1=737.1.2 Phases=1 Conn=Delta Model=4 kV=4.800 kW=140.0	kVAR=70.0
New object=Load.S738a      Bus1=738.1.2 Phases=1 Conn=Delta Model=1 kV=4.800 kW=126.0	kVAR=62.0
New object=Load.S740c      Bus1=740.3.1 Phases=1 Conn=Delta Model=1 kV=4.800 kW=85.0	kVAR=40.0
New object=Load.S741c      Bus1=741.3.1 Phases=1 Conn=Delta Model=4 kV=4.800 kW=42.0	kVAR=21.0
New object=Load.S742a      Bus1=742.1.2 Phases=1 Conn=Delta Model=2 kV=4.800 kW=8.0	kVAR=4.0
New object=Load.S742b      Bus1=742.2.3 Phases=1 Conn=Delta Model=2 kV=4.800 kW=85.0	kVAR=40.0
New object=Load.S744a      Bus1=744.1.2 Phases=1 Conn=Delta Model=1 kV=4.800 kW=42.0	kVAR=21.0

! Add some bus coordinates.
MakeBusList
SetBusXY Bus=sourcebus	X=0.00	Y=0.02
SetBusXY Bus=799R		X=0.00	Y=0.00
SetBusXY Bus=799		X=0.00	Y=0.01
SetBusXY Bus=701		X=0.00	Y=-1.85
SetBusXY Bus=702		X=0.00	Y=-2.81
SetBusXY Bus=703		X=0.00	Y=-4.13
SetBusXY Bus=704		X=0.88	Y=-2.81
SetBusXY Bus=705		X=-0.40	Y=-2.81
SetBusXY Bus=706		X=1.68	Y=-3.41
SetBusXY Bus=707		X=1.68	Y=-1.89
SetBusXY Bus=708		X=-0.32	Y=-4.93
SetBusXY Bus=709		X=0.00	Y=-4.93
SetBusXY Bus=710		X=-0.84	Y=-5.81
SetBusXY Bus=711		X=0.48	Y=-6.45
SetBusXY Bus=712		X=-0.40	Y=-2.57
SetBusXY Bus=713		X=0.36	Y=-2.81
SetBusXY Bus=714		X=0.88	Y=-2.89
SetBusXY Bus=718		X=0.88	Y=-3.41
SetBusXY Bus=720		X=1.68	Y=-2.81
SetBusXY Bus=722		X=1.56	Y=-1.89
SetBusXY Bus=724		X=1.68	Y=-1.13
SetBusXY Bus=725		X=1.68	Y=-3.69
SetBusXY Bus=727		X=-0.24	Y=-4.13
SetBusXY Bus=728		X=-0.52	Y=-4.33
SetBusXY Bus=729		X=-0.80	Y=-4.13
SetBusXY Bus=730		X=0.00	Y=-4.73
SetBusXY Bus=731		X=0.60	Y=-4.93
SetBusXY Bus=732		X=-0.64	Y=-4.93
SetBusXY Bus=733		X=-0.32	Y=-5.25
SetBusXY Bus=734		X=-0.32	Y=-5.81
SetBusXY Bus=735		X=-0.84	Y=-6.01
SetBusXY Bus=736		X=-0.84	Y=-4.53
SetBusXY Bus=737		X=-0.32	Y=-6.45
SetBusXY Bus=738		X=0.08	Y=-6.45
SetBusXY Bus=740		X=0.48	Y=-6.25
SetBusXY Bus=741		X=0.88	Y=-6.45
SetBusXY Bus=742		X=-0.72	Y=-2.81
SetBusXY Bus=744		X=-0.52	Y=-4.13
SetBusXY Bus=775		X=0.00	Y=-4.94

! Calculations
Set VoltageBases="230,4.8,0.48"
CalcVoltageBases
!Export BusCoords coords.csv
!calcincmatrix_o
!Export IncMatrix     ! Exports the incidence branch to node matrix (only the non-zero elements and their coordinates)
!Export IncMatrixRow links.csv  ! Exports the name of the rows (link branches)
!Export IncMatrixCols ! Exports the name of the cols (buses)